[General]
sim-time-limit = 1000s

[Config Good]
network = GoodNetwork

[Config Bad]
network = BadNetwork

[Config BadSmall]
network = SmallBadNetwork

[Config Random]
network = RandomNetwork2
**.numOfNodes = 8
**.run = 0