[General]
sim-time-limit = 1000s
**.interestCacheFilter = false
**.dataFilter = false

[Config Good]
network = GoodNetwork

[Config Random]
network = RandomNetwork2
**.numOfNodes = 8
**.run = 0