[General]
sim-time-limit = 1000s

[Config Good]
network = GoodNetwork

[Config Bad]
network = BadNetwork

[Config BadSmall]
network = SmallBadNetwork
