[General]
sim-time-limit = 1000s
record-eventlog = false

[Config RandomNetwork2]
network = RandomNetwork2

[Config RandomNetwork3]
network = RandomNetwork3

[Config RandomNetwork4]
network = RandomNetwork4

[Config RandomNetwork5]
network = RandomNetwork5

[Config RandomNetwork6]
network = RandomNetwork6

[Config RandomNetwork7]
network = RandomNetwork7

[Config RandomNetwork8]
network = RandomNetwork8
